!-Generator IDF+ v0.1.2
!-Option SortedOrder
!-NOTE: All comments with '!-' are ignored by the IDFEditor and are generated automatically.
!-      Use '!' comments if they need to be retained when using the IDFEditor.
  Version,
    8.9;                     !- Version Identifier

  SimulationControl,
    No,                      !- Do Zone Sizing Calculation
    No,                      !- Do System Sizing Calculation
    No,                      !- Do Plant Sizing Calculation
    No,                      !- Run Simulation for Sizing Periods
    Yes,                     !- Run Simulation for Weather File Run Periods
    No,                      !- Do HVAC Sizing Simulation for Sizing Periods
    1;                       !- Maximum Number of HVAC Sizing Simulation Passes

  Building,
    My Shoebox,              !- Name
    @@ori@@,                 !- North Axis {deg}
    Suburbs,                 !- Terrain
    0.04,                    !- Loads Convergence Tolerance Value
    0.4,                     !- Temperature Convergence Tolerance Value {deltaC}
    @@sd@@,                  !- Solar Distribution
    25,                      !- Maximum Number of Warmup Days
    6;                       !- Minimum Number of Warmup Days

  Timestep,
    @@ts@@;                  !- Number of Timesteps per Hour

  RunPeriod,
    Annual run,              !- Name
    1,                       !- Begin Month
    1,                       !- Begin Day of Month
    12,                      !- End Month
    31,                      !- End Day of Month
    UseWeatherFile,          !- Day of Week for Start Day
    Yes,                     !- Use Weather File Holidays and Special Days
    Yes,                     !- Use Weather File Daylight Saving Period
    No,                      !- Apply Weekend Holiday Rule
    Yes,                     !- Use Weather File Rain Indicators
    Yes,                     !- Use Weather File Snow Indicators
    1,                       !- Number of Times Runperiod to be Repeated
    Yes;                     !- Increment Day of Week on repeat

  Site:GroundTemperature:BuildingSurface,
    18,                      !- January Ground Temperature {C}
    18,                      !- February Ground Temperature {C}
    18,                      !- March Ground Temperature {C}
    18,                      !- April Ground Temperature {C}
    18,                      !- May Ground Temperature {C}
    18,                      !- June Ground Temperature {C}
    18,                      !- July Ground Temperature {C}
    18,                      !- August Ground Temperature {C}
    18,                      !- September Ground Temperature {C}
    18,                      !- October Ground Temperature {C}
    18,                      !- November Ground Temperature {C}
    18;                      !- December Ground Temperature {C}

  ScheduleTypeLimits,
    Fraction,                !- Name
    0.0,                     !- Lower Limit Value
    1.0,                     !- Upper Limit Value
    Continuous;              !- Numeric Type

  ScheduleTypeLimits,
    On/Off,                  !- Name
    0.0,                     !- Lower Limit Value
    1.0,                     !- Upper Limit Value
    Discrete;                !- Numeric Type

  ScheduleTypeLimits,
    Any Number;              !- Name

  ScheduleTypeLimits,
    Temperature,             !- Name
    -60,                     !- Lower Limit Value
    200,                     !- Upper Limit Value
    CONTINUOUS;              !- Numeric Type

  ScheduleTypeLimits,
    Control Type,            !- Name
    0,                       !- Lower Limit Value
    4,                       !- Upper Limit Value
    DISCRETE;                !- Numeric Type

  Schedule:Compact,
    Continuous,              !- Name
    on/off,                  !- Schedule Type Limits Name
    Through: 12/31,          !- Field 1
    For: AllDays,            !- Field 2
    Until: 24:00,            !- Field 3
    1.0;                     !- Field 4

  Schedule:Compact,
    Daytime Ventilation,     !- Name
    Fraction,                !- Schedule Type Limits Name
    Through: 12/31,          !- Field 1
    For: Weekdays SummerDesignDay,  !- Field 2
    Until: 08:00,            !- Field 3
    0.0,                     !- Field 4
    Until: 18:00,            !- Field 5
    1.0,                     !- Field 6
    Until: 24:00,            !- Field 7
    0.0,                     !- Field 8
    For: Weekends WinterDesignDay,  !- Field 9
    Until: 10:00,            !- Field 10
    0.0,                     !- Field 11
    Until: 16:00,            !- Field 12
    1.0,                     !- Field 13
    Until: 24:00,            !- Field 14
    0.0,                     !- Field 15
    For: Holidays AllOtherDays,  !- Field 16
    Until: 24:00,            !- Field 17
    0.0;                     !- Field 18

  Schedule:Compact,
    Office Lighting,         !- Name
    Fraction,                !- Schedule Type Limits Name
    Through: 12/31,          !- Field 1
    For: Weekdays SummerDesignDay,  !- Field 2
    Until: 05:00,            !- Field 3
    0.05,                    !- Field 4
    Until: 07:00,            !- Field 5
    0.1,                     !- Field 6
    Until: 08:00,            !- Field 7
    0.3,                     !- Field 8
    Until: 17:00,            !- Field 9
    0.9,                     !- Field 10
    Until: 18:00,            !- Field 11
    0.5,                     !- Field 12
    Until: 20:00,            !- Field 13
    0.3,                     !- Field 14
    Until: 22:00,            !- Field 15
    0.2,                     !- Field 16
    Until: 23:00,            !- Field 17
    0.1,                     !- Field 18
    Until: 24:00,            !- Field 19
    0.05,                    !- Field 20
    For: Saturday WinterDesignDay,  !- Field 21
    Until: 06:00,            !- Field 22
    0.05,                    !- Field 23
    Until: 08:00,            !- Field 24
    0.1,                     !- Field 25
    Until: 12:00,            !- Field 26
    0.3,                     !- Field 27
    Until: 17:00,            !- Field 28
    0.15,                    !- Field 29
    Until: 24:00,            !- Field 30
    0.05,                    !- Field 31
    For: Sunday Holidays AllOtherDays,  !- Field 32
    Until: 24:00,            !- Field 33
    0.05;                    !- Field 34

  Schedule:Compact,
    Office Occupancy,        !- Name
    Fraction,                !- Schedule Type Limits Name
    Through: 12/31,          !- Field 1
    For: Weekdays SummerDesignDay,  !- Field 2
    Until: 06:00,            !- Field 3
    0.0,                     !- Field 4
    Until: 07:00,            !- Field 5
    0.1,                     !- Field 6
    Until: 08:00,            !- Field 7
    0.2,                     !- Field 8
    Until: 12:00,            !- Field 9
    0.95,                    !- Field 10
    Until: 13:00,            !- Field 11
    0.5,                     !- Field 12
    Until: 17:00,            !- Field 13
    0.95,                    !- Field 14
    Until: 18:00,            !- Field 15
    0.3,                     !- Field 16
    Until: 22:00,            !- Field 17
    0.1,                     !- Field 18
    Until: 24:00,            !- Field 19
    0.05,                    !- Field 20
    For: Saturday WinterDesignDay,  !- Field 21
    Until: 06:00,            !- Field 22
    0.0,                     !- Field 23
    Until: 08:00,            !- Field 24
    0.1,                     !- Field 25
    Until: 12:00,            !- Field 26
    0.3,                     !- Field 27
    Until: 17:00,            !- Field 28
    0.1,                     !- Field 29
    Until: 19:00,            !- Field 30
    0.05,                    !- Field 31
    Until: 24:00,            !- Field 32
    0.0,                     !- Field 33
    For: Sunday Holidays AllOtherDays,  !- Field 34
    Until: 06:00,            !- Field 35
    0.0,                     !- Field 36
    Until: 18:00,            !- Field 37
    0.05,                    !- Field 38
    Until: 24:00,            !- Field 39
    0.0;                     !- Field 40

  Schedule:Compact,
    Activity Schedule 10,    !- Name
    Any Number,              !- Schedule Type Limits Name
    Through: 12/31,          !- Field 1
    For: AllDays,            !- Field 2
    Until: 24:00,            !- Field 3
    110.7;                   !- Field 4

  Schedule:Compact,
    Clothing Schedule 10,    !- Name
    Any Number,              !- Schedule Type Limits Name
    Through: 4/1,            !- Field 1
    For: AllDays,            !- Field 2
    Until: 24:00,            !- Field 3
    1,                       !- Field 4
    Through: 9/30,           !- Field 5
    For: AllDays,            !- Field 6
    Until: 24:00,            !- Field 7
    .5,                      !- Field 8
    Through: 12/31,          !- Field 9
    For: AllDays,            !- Field 10
    Until: 24:00,            !- Field 11
    1;                       !- Field 12

  Schedule:Compact,
    AirVelocitySchedule,     !- Name
    Any Number,              !- Schedule Type Limits Name
    Through: 12/31,          !- Field 1
    For: AllDays,            !- Field 2
    Until: 24:00,            !- Field 3
    .137;                    !- Field 4

  Schedule:Compact,
    Work efficiency,         !- Name
    Any Number,              !- Schedule Type Limits Name
    Through: 12/31,          !- Field 1
    For: AllDays,            !- Field 2
    Until: 24:00,            !- Field 3
    0;                       !- Field 4

  Material,
    F06 EIFS finish,         !- Name
    Smooth,                  !- Roughness
    0.0095,                  !- Thickness {m}
    0.72,                    !- Conductivity {W/m-K}
    1856,                    !- Density {kg/m3}
    840;                     !- Specific Heat {J/kg-K}

  Material,
    F07 25mm stucco,         !- Name
    Smooth,                  !- Roughness
    0.0254,                  !- Thickness {m}
    0.72,                    !- Conductivity {W/m-K}
    1856,                    !- Density {kg/m3}
    840;                     !- Specific Heat {J/kg-K}

  Material,
    F08 Metal surface,       !- Name
    Smooth,                  !- Roughness
    0.0008,                  !- Thickness {m}
    45.28,                   !- Conductivity {W/m-K}
    7824,                    !- Density {kg/m3}
    500;                     !- Specific Heat {J/kg-K}

  Material,
    F09 Opaque spandrel glass,  !- Name
    Smooth,                  !- Roughness
    0.0064,                  !- Thickness {m}
    0.99,                    !- Conductivity {W/m-K}
    2528,                    !- Density {kg/m3}
    880;                     !- Specific Heat {J/kg-K}

  Material,
    F10 25mm stone,          !- Name
    MediumRough,             !- Roughness
    0.0254,                  !- Thickness {m}
    3.17,                    !- Conductivity {W/m-K}
    2560,                    !- Density {kg/m3}
    790;                     !- Specific Heat {J/kg-K}

  Material,
    F11 Wood siding,         !- Name
    MediumSmooth,            !- Roughness
    0.0127,                  !- Thickness {m}
    0.09,                    !- Conductivity {W/m-K}
    592,                     !- Density {kg/m3}
    1170;                    !- Specific Heat {J/kg-K}

  Material,
    F12 Asphalt shingles,    !- Name
    VeryRough,               !- Roughness
    0.0032,                  !- Thickness {m}
    0.04,                    !- Conductivity {W/m-K}
    1120,                    !- Density {kg/m3}
    1260;                    !- Specific Heat {J/kg-K}

  Material,
    F13 Built-up roofing,    !- Name
    Rough,                   !- Roughness
    0.0095,                  !- Thickness {m}
    0.16,                    !- Conductivity {W/m-K}
    1120,                    !- Density {kg/m3}
    1460;                    !- Specific Heat {J/kg-K}

  Material,
    F14 Slate or tile,       !- Name
    VeryRough,               !- Roughness
    0.0127,                  !- Thickness {m}
    1.59,                    !- Conductivity {W/m-K}
    1920,                    !- Density {kg/m3}
    1260;                    !- Specific Heat {J/kg-K}

  Material,
    F15 Wood shingles,       !- Name
    VeryRough,               !- Roughness
    0.0064,                  !- Thickness {m}
    0.04,                    !- Conductivity {W/m-K}
    592,                     !- Density {kg/m3}
    1300;                    !- Specific Heat {J/kg-K}

  Material,
    F16 Acoustic tile,       !- Name
    MediumSmooth,            !- Roughness
    0.0191,                  !- Thickness {m}
    0.06,                    !- Conductivity {W/m-K}
    368,                     !- Density {kg/m3}
    590;                     !- Specific Heat {J/kg-K}

  Material,
    F17 Carpet,              !- Name
    MediumRough,             !- Roughness
    0.0127,                  !- Thickness {m}
    0.06,                    !- Conductivity {W/m-K}
    288,                     !- Density {kg/m3}
    1380;                    !- Specific Heat {J/kg-K}

  Material,
    F18 Terrazzo,            !- Name
    Rough,                   !- Roughness
    0.0254,                  !- Thickness {m}
    1.8,                     !- Conductivity {W/m-K}
    2560,                    !- Density {kg/m3}
    790;                     !- Specific Heat {J/kg-K}

  Material,
    G01 16mm gypsum board,   !- Name
    MediumSmooth,            !- Roughness
    0.0159,                  !- Thickness {m}
    0.16,                    !- Conductivity {W/m-K}
    800,                     !- Density {kg/m3}
    1090;                    !- Specific Heat {J/kg-K}

  Material,
    G01a 19mm gypsum board,  !- Name
    MediumSmooth,            !- Roughness
    0.019,                   !- Thickness {m}
    0.16,                    !- Conductivity {W/m-K}
    800,                     !- Density {kg/m3}
    1090;                    !- Specific Heat {J/kg-K}

  Material,
    G02 16mm plywood,        !- Name
    Smooth,                  !- Roughness
    0.0159,                  !- Thickness {m}
    0.12,                    !- Conductivity {W/m-K}
    544,                     !- Density {kg/m3}
    1210;                    !- Specific Heat {J/kg-K}

  Material,
    G03 13mm fiberboard sheathing,  !- Name
    Smooth,                  !- Roughness
    0.0127,                  !- Thickness {m}
    0.07,                    !- Conductivity {W/m-K}
    400,                     !- Density {kg/m3}
    1300;                    !- Specific Heat {J/kg-K}

  Material,
    G04 13mm wood,           !- Name
    MediumSmooth,            !- Roughness
    0.0127,                  !- Thickness {m}
    0.15,                    !- Conductivity {W/m-K}
    608,                     !- Density {kg/m3}
    1630;                    !- Specific Heat {J/kg-K}

  Material,
    G05 25mm wood,           !- Name
    MediumSmooth,            !- Roughness
    0.0254,                  !- Thickness {m}
    0.15,                    !- Conductivity {W/m-K}
    608,                     !- Density {kg/m3}
    1630;                    !- Specific Heat {J/kg-K}

  Material,
    G06 50mm wood,           !- Name
    MediumSmooth,            !- Roughness
    0.0508,                  !- Thickness {m}
    0.15,                    !- Conductivity {W/m-K}
    608,                     !- Density {kg/m3}
    1630;                    !- Specific Heat {J/kg-K}

  Material,
    G07 100mm wood,          !- Name
    MediumSmooth,            !- Roughness
    0.1016,                  !- Thickness {m}
    0.15,                    !- Conductivity {W/m-K}
    608,                     !- Density {kg/m3}
    1630;                    !- Specific Heat {J/kg-K}

  Material,
    I01 25mm insulation board,  !- Name
    MediumRough,             !- Roughness
    0.0254,                  !- Thickness {m}
    0.03,                    !- Conductivity {W/m-K}
    43,                      !- Density {kg/m3}
    1210;                    !- Specific Heat {J/kg-K}

  Material,
    I02 50mm insulation board,  !- Name
    MediumRough,             !- Roughness
    @@ins@@,                 !- Thickness {m}
    0.03,                    !- Conductivity {W/m-K}
    43,                      !- Density {kg/m3}
    1210;                    !- Specific Heat {J/kg-K}

  Material,
    I03 75mm insulation board,  !- Name
    MediumRough,             !- Roughness
    0.0762,                  !- Thickness {m}
    0.03,                    !- Conductivity {W/m-K}
    43,                      !- Density {kg/m3}
    1210;                    !- Specific Heat {J/kg-K}

  Material,
    I04 89mm batt insulation,  !- Name
    VeryRough,               !- Roughness
    0.0894,                  !- Thickness {m}
    0.05,                    !- Conductivity {W/m-K}
    19,                      !- Density {kg/m3}
    960;                     !- Specific Heat {J/kg-K}

  Material,
    I05 154mm batt insulation,  !- Name
    VeryRough,               !- Roughness
    0.1544,                  !- Thickness {m}
    0.05,                    !- Conductivity {W/m-K}
    19,                      !- Density {kg/m3}
    960;                     !- Specific Heat {J/kg-K}

  Material,
    I06 244mm batt insulation,  !- Name
    VeryRough,               !- Roughness
    0.2438,                  !- Thickness {m}
    0.05,                    !- Conductivity {W/m-K}
    19,                      !- Density {kg/m3}
    960;                     !- Specific Heat {J/kg-K}

  Material,
    M01 100mm brick,         !- Name
    MediumRough,             !- Roughness
    0.1016,                  !- Thickness {m}
    0.89,                    !- Conductivity {W/m-K}
    1920,                    !- Density {kg/m3}
    790;                     !- Specific Heat {J/kg-K}

  Material,
    M02 150mm lightweight concrete block,  !- Name
    MediumRough,             !- Roughness
    0.1524,                  !- Thickness {m}
    0.49,                    !- Conductivity {W/m-K}
    512,                     !- Density {kg/m3}
    880;                     !- Specific Heat {J/kg-K}

  Material,
    M03 200mm lightweight concrete block,  !- Name
    MediumRough,             !- Roughness
    0.2032,                  !- Thickness {m}
    0.5,                     !- Conductivity {W/m-K}
    464,                     !- Density {kg/m3}
    880;                     !- Specific Heat {J/kg-K}

  Material,
    M04 300mm lightweight concrete block,  !- Name
    MediumRough,             !- Roughness
    0.3048,                  !- Thickness {m}
    0.71,                    !- Conductivity {W/m-K}
    512,                     !- Density {kg/m3}
    880;                     !- Specific Heat {J/kg-K}

  Material,
    M05 200mm concrete block,  !- Name
    MediumRough,             !- Roughness
    0.2032,                  !- Thickness {m}
    1.11,                    !- Conductivity {W/m-K}
    800,                     !- Density {kg/m3}
    920;                     !- Specific Heat {J/kg-K}

  Material,
    M06 300mm concrete block,  !- Name
    MediumRough,             !- Roughness
    0.3048,                  !- Thickness {m}
    1.4,                     !- Conductivity {W/m-K}
    800,                     !- Density {kg/m3}
    920;                     !- Specific Heat {J/kg-K}

  Material,
    M07 150mm lightweight concrete block (filled),  !- Name
    MediumRough,             !- Roughness
    0.1524,                  !- Thickness {m}
    0.29,                    !- Conductivity {W/m-K}
    512,                     !- Density {kg/m3}
    880;                     !- Specific Heat {J/kg-K}

  Material,
    M08 200mm lightweight concrete block (filled),  !- Name
    MediumRough,             !- Roughness
    0.2032,                  !- Thickness {m}
    0.26,                    !- Conductivity {W/m-K}
    464,                     !- Density {kg/m3}
    880;                     !- Specific Heat {J/kg-K}

  Material,
    M09 300mm lightweight concrete block (filled),  !- Name
    MediumRough,             !- Roughness
    0.3048,                  !- Thickness {m}
    0.29,                    !- Conductivity {W/m-K}
    512,                     !- Density {kg/m3}
    880;                     !- Specific Heat {J/kg-K}

  Material,
    M10 200mm concrete block (filled),  !- Name
    MediumRough,             !- Roughness
    0.2032,                  !- Thickness {m}
    0.72,                    !- Conductivity {W/m-K}
    800,                     !- Density {kg/m3}
    920;                     !- Specific Heat {J/kg-K}

  Material,
    M11 100mm lightweight concrete,  !- Name
    MediumRough,             !- Roughness
    0.1016,                  !- Thickness {m}
    0.53,                    !- Conductivity {W/m-K}
    1280,                    !- Density {kg/m3}
    840;                     !- Specific Heat {J/kg-K}

  Material,
    M12 150mm lightweight concrete,  !- Name
    MediumRough,             !- Roughness
    0.1524,                  !- Thickness {m}
    0.53,                    !- Conductivity {W/m-K}
    1280,                    !- Density {kg/m3}
    840;                     !- Specific Heat {J/kg-K}

  Material,
    M13 200mm lightweight concrete,  !- Name
    MediumRough,             !- Roughness
    0.2032,                  !- Thickness {m}
    0.53,                    !- Conductivity {W/m-K}
    1280,                    !- Density {kg/m3}
    840;                     !- Specific Heat {J/kg-K}

  Material,
    M14a 100mm heavyweight concrete,  !- Name
    MediumRough,             !- Roughness
    0.1016,                  !- Thickness {m}
    1.95,                    !- Conductivity {W/m-K}
    2240,                    !- Density {kg/m3}
    900;                     !- Specific Heat {J/kg-K}

  Material,
    M14 150mm heavyweight concrete,  !- Name
    MediumRough,             !- Roughness
    0.1524,                  !- Thickness {m}
    1.95,                    !- Conductivity {W/m-K}
    2240,                    !- Density {kg/m3}
    900;                     !- Specific Heat {J/kg-K}

  Material,
    M15 200mm heavyweight concrete,  !- Name
    MediumRough,             !- Roughness
    0.2032,                  !- Thickness {m}
    1.95,                    !- Conductivity {W/m-K}
    2240,                    !- Density {kg/m3}
    900;                     !- Specific Heat {J/kg-K}

  Material,
    M16 300mm heavyweight concrete,  !- Name
    MediumRough,             !- Roughness
    0.3048,                  !- Thickness {m}
    1.95,                    !- Conductivity {W/m-K}
    2240,                    !- Density {kg/m3}
    900;                     !- Specific Heat {J/kg-K}

  Material,
    M17 50mm lightweight concrete roof ballast,  !- Name
    MediumRough,             !- Roughness
    0.0508,                  !- Thickness {m}
    0.19,                    !- Conductivity {W/m-K}
    640,                     !- Density {kg/m3}
    840;                     !- Specific Heat {J/kg-K}

!===============================================================================
! HOF Materials, Chapter 25
! The following materials and constructions are created from
! ASHRAE Handbook of Fundamentals, 2005, Chapter 25, Table 4.
!===============================================================================
  Material,
    Asbestos-cement board - 3.2mm,  !- Name
    Smooth,                  !- Roughness
    0.0032,                  !- Thickness {m}
    0.58,                    !- Conductivity {W/m-K}
    1900,                    !- Density {kg/m3}
    1000;                    !- Specific Heat {J/kg-K}

  Material,
    Asbestos-cement board - 6.4mm,  !- Name
    Smooth,                  !- Roughness
    0.0064,                  !- Thickness {m}
    0.58,                    !- Conductivity {W/m-K}
    1900,                    !- Density {kg/m3}
    1000;                    !- Specific Heat {J/kg-K}

  Material,
    Gypsum or plaster board - 9.5mm,  !- Name
    MediumSmooth,            !- Roughness
    0.0095,                  !- Thickness {m}
    0.58,                    !- Conductivity {W/m-K}
    800,                     !- Density {kg/m3}
    1090;                    !- Specific Heat {J/kg-K}

  Material,
    Gypsum or plaster board - 2.7mm,  !- Name
    MediumSmooth,            !- Roughness
    0.0027,                  !- Thickness {m}
    0.58,                    !- Conductivity {W/m-K}
    800,                     !- Density {kg/m3}
    1090;                    !- Specific Heat {J/kg-K}

  Material,
    Gypsum or plaster board - 5.9mm,  !- Name
    MediumSmooth,            !- Roughness
    0.0059,                  !- Thickness {m}
    0.58,                    !- Conductivity {W/m-K}
    800,                     !- Density {kg/m3}
    1090;                    !- Specific Heat {J/kg-K}

  Material,
    Plywood (Douglas Fir) - 6.4mm,  !- Name
    MediumSmooth,            !- Roughness
    0.0064,                  !- Thickness {m}
    0.12,                    !- Conductivity {W/m-K}
    540,                     !- Density {kg/m3}
    1210;                    !- Specific Heat {J/kg-K}

  Material,
    Plywood (Douglas Fir) - 9.5mm,  !- Name
    Smooth,                  !- Roughness
    0.0095,                  !- Thickness {m}
    0.12,                    !- Conductivity {W/m-K}
    540,                     !- Density {kg/m3}
    1210;                    !- Specific Heat {J/kg-K}

  Material,
    Plywood (Douglas Fir) - 12.7mm,  !- Name
    Smooth,                  !- Roughness
    0.0127,                  !- Thickness {m}
    0.12,                    !- Conductivity {W/m-K}
    540,                     !- Density {kg/m3}
    1210;                    !- Specific Heat {J/kg-K}

  Material,
    Plywood (Douglas Fir) - 15.9mm,  !- Name
    Smooth,                  !- Roughness
    0.0159,                  !- Thickness {m}
    0.12,                    !- Conductivity {W/m-K}
    540,                     !- Density {kg/m3}
    1210;                    !- Specific Heat {J/kg-K}

  Material,
    Plywood or wood panels - 19.0mm,  !- Name
    Smooth,                  !- Roughness
    0.019,                   !- Thickness {m}
    0.12,                    !- Conductivity {W/m-K}
    540,                     !- Density {kg/m3}
    1210;                    !- Specific Heat {J/kg-K}

  Material,
    Sheathing - regular density - 12.7mm,  !- Name
    Smooth,                  !- Roughness
    0.0127,                  !- Thickness {m}
    0.055,                   !- Conductivity {W/m-K}
    290,                     !- Density {kg/m3}
    1300;                    !- Specific Heat {J/kg-K}

  Material,
    Sheathing - regular density - 19.8mm,  !- Name
    Smooth,                  !- Roughness
    0.0198,                  !- Thickness {m}
    0.055,                   !- Conductivity {W/m-K}
    290,                     !- Density {kg/m3}
    1300;                    !- Specific Heat {J/kg-K}

  Material,
    Sheathing intermediate density - 12.7mm,  !- Name
    Smooth,                  !- Roughness
    0.0127,                  !- Thickness {m}
    0.057,                   !- Conductivity {W/m-K}
    350,                     !- Density {kg/m3}
    1300;                    !- Specific Heat {J/kg-K}

  Material,
    Nail-base sheathing - 12.7mm,  !- Name
    Smooth,                  !- Roughness
    0.0127,                  !- Thickness {m}
    0.057,                   !- Conductivity {W/m-K}
    400,                     !- Density {kg/m3}
    1300;                    !- Specific Heat {J/kg-K}

  Material,
    Shingle backer - 9.5mm,  !- Name
    Smooth,                  !- Roughness
    0.0095,                  !- Thickness {m}
    0.063,                   !- Conductivity {W/m-K}
    290,                     !- Density {kg/m3}
    1300;                    !- Specific Heat {J/kg-K}

  Material,
    Shingle backer - 7.9mm,  !- Name
    Smooth,                  !- Roughness
    0.0079,                  !- Thickness {m}
    0.063,                   !- Conductivity {W/m-K}
    290,                     !- Density {kg/m3}
    1300;                    !- Specific Heat {J/kg-K}

  Material,
    Sound deadening board,   !- Name
    Smooth,                  !- Roughness
    0.0127,                  !- Thickness {m}
    0.063,                   !- Conductivity {W/m-K}
    240,                     !- Density {kg/m3}
    1260;                    !- Specific Heat {J/kg-K}

  Material,
    Tile and lay-in panels - plain or acoustic - 12.7mm,  !- Name
    MediumSmooth,            !- Roughness
    0.0127,                  !- Thickness {m}
    0.057,                   !- Conductivity {W/m-K}
    290,                     !- Density {kg/m3}
    590;                     !- Specific Heat {J/kg-K}

  Material,
    Tile and lay-in panels - plain or acoustic - 19mm,  !- Name
    MediumSmooth,            !- Roughness
    0.019,                   !- Thickness {m}
    0.057,                   !- Conductivity {W/m-K}
    290,                     !- Density {kg/m3}
    590;                     !- Specific Heat {J/kg-K}

  Material,
    Laminated paperboard,    !- Name
    MediumSmooth,            !- Roughness
    0.0032,                  !- Thickness {m}
    0.072,                   !- Conductivity {W/m-K}
    480,                     !- Density {kg/m3}
    1380;                    !- Specific Heat {J/kg-K}

  Material,
    Homogeneous board from repulped paper,  !- Name
    MediumSmooth,            !- Roughness
    0.0032,                  !- Thickness {m}
    0.072,                   !- Conductivity {W/m-K}
    480,                     !- Density {kg/m3}
    1170;                    !- Specific Heat {J/kg-K}

  Material,
    Hardboard Medium density,  !- Name
    Smooth,                  !- Roughness
    0.019,                   !- Thickness {m}
    0.105,                   !- Conductivity {W/m-K}